Input_data/circuit/Loads.txt
New Load.LOAD1 Phases=1 Bus1=34.1 kV=0.23 kW=1 PF=0.95 model=1 conn=wye status=variable daily=Shape_1 Spectrum=default
New Load.LOAD2 Phases=1 Bus1=47.2 kV=0.23 kW=1 PF=0.95 model=1 conn=wye status=variable daily=Shape_2 Spectrum=default
New Load.LOAD3 Phases=1 Bus1=70.1 kV=0.23 kW=1 PF=0.95 model=1 conn=wye status=variable daily=Shape_3 Spectrum=default
New Load.LOAD4 Phases=1 Bus1=73.1 kV=0.23 kW=1 PF=0.95 model=1 conn=wye status=variable daily=Shape_4 Spectrum=default
New Load.LOAD5 Phases=1 Bus1=74.1 kV=0.23 kW=1 PF=0.95 model=1 conn=wye status=variable daily=Shape_5 Spectrum=default
New Load.LOAD6 Phases=1 Bus1=83.2 kV=0.23 kW=1 PF=0.95 model=1 conn=wye status=variable daily=Shape_6 Spectrum=default
New Load.LOAD7 Phases=1 Bus1=178.2 kV=0.23 kW=1 PF=0.95 model=1 conn=wye status=variable daily=Shape_7 Spectrum=default
New Load.LOAD8 Phases=1 Bus1=208.3 kV=0.23 kW=1 PF=0.95 model=1 conn=wye status=variable daily=Shape_8 Spectrum=default
New Load.LOAD9 Phases=1 Bus1=225.1 kV=0.23 kW=1 PF=0.95 model=1 conn=wye status=variable daily=Shape_9 Spectrum=default
New Load.LOAD10 Phases=1 Bus1=248.2 kV=0.23 kW=1 PF=0.95 model=1 conn=wye status=variable daily=Shape_10 Spectrum=default
New Load.LOAD11 Phases=1 Bus1=249.2 kV=0.23 kW=1 PF=0.95 model=1 conn=wye status=variable daily=Shape_11 Spectrum=default
New Load.LOAD12 Phases=1 Bus1=264.3 kV=0.23 kW=1 PF=0.95 model=1 conn=wye status=variable daily=Shape_12 Spectrum=default
New Load.LOAD13 Phases=1 Bus1=276.2 kV=0.23 kW=1 PF=0.95 model=1 conn=wye status=variable daily=Shape_13 Spectrum=default
New Load.LOAD14 Phases=1 Bus1=289.1 kV=0.23 kW=1 PF=0.95 model=1 conn=wye status=variable daily=Shape_14 Spectrum=default
New Load.LOAD15 Phases=1 Bus1=314.2 kV=0.23 kW=1 PF=0.95 model=1 conn=wye status=variable daily=Shape_15 Spectrum=default
New Load.LOAD16 Phases=1 Bus1=320.3 kV=0.23 kW=1 PF=0.95 model=1 conn=wye status=variable daily=Shape_16 Spectrum=default
New Load.LOAD17 Phases=1 Bus1=327.3 kV=0.23 kW=1 PF=0.95 model=1 conn=wye status=variable daily=Shape_17 Spectrum=default
New Load.LOAD18 Phases=1 Bus1=337.3 kV=0.23 kW=1 PF=0.95 model=1 conn=wye status=variable daily=Shape_18 Spectrum=default
New Load.LOAD19 Phases=1 Bus1=342.3 kV=0.23 kW=1 PF=0.95 model=1 conn=wye status=variable daily=Shape_19 Spectrum=default
New Load.LOAD20 Phases=1 Bus1=349.1 kV=0.23 kW=1 PF=0.95 model=1 conn=wye status=variable daily=Shape_20 Spectrum=default
New Load.LOAD21 Phases=1 Bus1=387.1 kV=0.23 kW=1 PF=0.95 model=1 conn=wye status=variable daily=Shape_21 Spectrum=default
New Load.LOAD22 Phases=1 Bus1=388.1 kV=0.23 kW=1 PF=0.95 model=1 conn=wye status=variable daily=Shape_22 Spectrum=default
New Load.LOAD23 Phases=1 Bus1=406.2 kV=0.23 kW=1 PF=0.95 model=1 conn=wye status=variable daily=Shape_23 Spectrum=default
New Load.LOAD24 Phases=1 Bus1=458.3 kV=0.23 kW=1 PF=0.95 model=1 conn=wye status=variable daily=Shape_24 Spectrum=default
New Load.LOAD25 Phases=1 Bus1=502.1 kV=0.23 kW=1 PF=0.95 model=1 conn=wye status=variable daily=Shape_25 Spectrum=default
New Load.LOAD26 Phases=1 Bus1=522.2 kV=0.23 kW=1 PF=0.95 model=1 conn=wye status=variable daily=Shape_26 Spectrum=default
New Load.LOAD27 Phases=1 Bus1=539.3 kV=0.23 kW=1 PF=0.95 model=1 conn=wye status=variable daily=Shape_27 Spectrum=default
New Load.LOAD28 Phases=1 Bus1=556.3 kV=0.23 kW=1 PF=0.95 model=1 conn=wye status=variable daily=Shape_28 Spectrum=default
New Load.LOAD29 Phases=1 Bus1=562.1 kV=0.23 kW=1 PF=0.95 model=1 conn=wye status=variable daily=Shape_29 Spectrum=default
New Load.LOAD30 Phases=1 Bus1=563.1 kV=0.23 kW=1 PF=0.95 model=1 conn=wye status=variable daily=Shape_30 Spectrum=default
New Load.LOAD31 Phases=1 Bus1=611.1 kV=0.23 kW=1 PF=0.95 model=1 conn=wye status=variable daily=Shape_31 Spectrum=default
New Load.LOAD32 Phases=1 Bus1=614.3 kV=0.23 kW=1 PF=0.95 model=1 conn=wye status=variable daily=Shape_32 Spectrum=default
New Load.LOAD33 Phases=1 Bus1=619.3 kV=0.23 kW=1 PF=0.95 model=1 conn=wye status=variable daily=Shape_33 Spectrum=default
New Load.LOAD34 Phases=1 Bus1=629.1 kV=0.23 kW=1 PF=0.95 model=1 conn=wye status=variable daily=Shape_34 Spectrum=default
New Load.LOAD35 Phases=1 Bus1=639.2 kV=0.23 kW=1 PF=0.95 model=1 conn=wye status=variable daily=Shape_35 Spectrum=default
New Load.LOAD36 Phases=1 Bus1=676.2 kV=0.23 kW=1 PF=0.95 model=1 conn=wye status=variable daily=Shape_36 Spectrum=default
New Load.LOAD37 Phases=1 Bus1=682.2 kV=0.23 kW=1 PF=0.95 model=1 conn=wye status=variable daily=Shape_37 Spectrum=default
New Load.LOAD38 Phases=1 Bus1=688.2 kV=0.23 kW=1 PF=0.95 model=1 conn=wye status=variable daily=Shape_38 Spectrum=default
New Load.LOAD39 Phases=1 Bus1=701.3 kV=0.23 kW=1 PF=0.95 model=1 conn=wye status=variable daily=Shape_39 Spectrum=default
New Load.LOAD40 Phases=1 Bus1=702.2 kV=0.23 kW=1 PF=0.95 model=1 conn=wye status=variable daily=Shape_40 Spectrum=default
New Load.LOAD41 Phases=1 Bus1=755.2 kV=0.23 kW=1 PF=0.95 model=1 conn=wye status=variable daily=Shape_41 Spectrum=default
New Load.LOAD42 Phases=1 Bus1=778.3 kV=0.23 kW=1 PF=0.95 model=1 conn=wye status=variable daily=Shape_42 Spectrum=default
New Load.LOAD43 Phases=1 Bus1=780.3 kV=0.23 kW=1 PF=0.95 model=1 conn=wye status=variable daily=Shape_43 Spectrum=default
New Load.LOAD44 Phases=1 Bus1=785.2 kV=0.23 kW=1 PF=0.95 model=1 conn=wye status=variable daily=Shape_44 Spectrum=default
New Load.LOAD45 Phases=1 Bus1=813.2 kV=0.23 kW=1 PF=0.95 model=1 conn=wye status=variable daily=Shape_45 Spectrum=default
New Load.LOAD46 Phases=1 Bus1=817.1 kV=0.23 kW=1 PF=0.95 model=1 conn=wye status=variable daily=Shape_46 Spectrum=default
New Load.LOAD47 Phases=1 Bus1=835.3 kV=0.23 kW=1 PF=0.95 model=1 conn=wye status=variable daily=Shape_47 Spectrum=default
New Load.LOAD48 Phases=1 Bus1=860.1 kV=0.23 kW=1 PF=0.95 model=1 conn=wye status=variable daily=Shape_48 Spectrum=default
New Load.LOAD49 Phases=1 Bus1=861.1 kV=0.23 kW=1 PF=0.95 model=1 conn=wye status=variable daily=Shape_49 Spectrum=default
New Load.LOAD50 Phases=1 Bus1=886.2 kV=0.23 kW=1 PF=0.95 model=1 conn=wye status=variable daily=Shape_50 Spectrum=default
New Load.LOAD51 Phases=1 Bus1=896.1 kV=0.23 kW=1 PF=0.95 model=1 conn=wye status=variable daily=Shape_51 Spectrum=default
New Load.LOAD52 Phases=1 Bus1=898.1 kV=0.23 kW=1 PF=0.95 model=1 conn=wye status=variable daily=Shape_52 Spectrum=default
New Load.LOAD53 Phases=1 Bus1=899.2 kV=0.23 kW=1 PF=0.95 model=1 conn=wye status=variable daily=Shape_53 Spectrum=default
New Load.LOAD54 Phases=1 Bus1=900.1 kV=0.23 kW=1 PF=0.95 model=1 conn=wye status=variable daily=Shape_54 Spectrum=default
New Load.LOAD55 Phases=1 Bus1=906.1 kV=0.23 kW=1 PF=0.95 model=1 conn=wye status=variable daily=Shape_55 Spectrum=default